1N8N_AU3_A_292
 OpenBabel10161615053D
Coordinates from PDB:1N8N:A:292 Model:1 without hydrogens
  1  0  0  0  0  0  0  0  0  0999 V2000
    5.6730   12.7630   48.2970 Au  0  1  0  0  0 15  0  0  0  0  0  0
M  CHG  1   1   3
M  END
>  <InstanceId>
1N8N_AU3_A_292

>  <ChemCompId>
AU3

>  <PdbId>
1N8N

>  <ChainId>
A

>  <ResidueNumber>
292

>  <InsertionCode>


>  <Model>
1

>  <AltIds>


>  <MissingHeavyAtoms>
0

>  <ObservedFormula>
Au

>  <Name>
GOLD 3+ ION

>  <SystematicName>
gold(+3) cation

>  <Synonyms>


>  <Type>
NON-POLYMER

>  <Formula>
Au

>  <MolecularWeight>
196.967

>  <ModifiedDate>
2011-06-04

>  <Parent>


>  <OneLetterCode>


>  <SubcomponentList>


>  <AmbiguousFlag>
N

>  <InChI>
InChI=1S/Au/q+3

>  <InChIKey>
CBMIPXHVOVTTTL-UHFFFAOYSA-N

>  <SMILES>
[Au+3]

$$$$
1RM7_AU3_?_320
 OpenBabel10161615053D
Coordinates from PDB:1RM7:?:320 Model:1 without hydrogens
  1  0  0  0  0  0  0  0  0  0999 V2000
   19.6040    9.8620   18.4290 Au  0  1  0  0  0 15  0  0  0  0  0  0
M  CHG  1   1   3
M  END
>  <InstanceId>
1RM7_AU3_?_320

>  <ChemCompId>
AU3

>  <PdbId>
1RM7

>  <ChainId>
?

>  <ResidueNumber>
320

>  <InsertionCode>


>  <Model>
1

>  <AltIds>


>  <MissingHeavyAtoms>
0

>  <ObservedFormula>
Au

>  <Name>
GOLD 3+ ION

>  <SystematicName>
gold(+3) cation

>  <Synonyms>


>  <Type>
NON-POLYMER

>  <Formula>
Au

>  <MolecularWeight>
196.967

>  <ModifiedDate>
2011-06-04

>  <Parent>


>  <OneLetterCode>


>  <SubcomponentList>


>  <AmbiguousFlag>
N

>  <InChI>
InChI=1S/Au/q+3

>  <InChIKey>
CBMIPXHVOVTTTL-UHFFFAOYSA-N

>  <SMILES>
[Au+3]

$$$$
1RM7_AU3_?_321
 OpenBabel10161615053D
Coordinates from PDB:1RM7:?:321 Model:1 without hydrogens
  1  0  0  0  0  0  0  0  0  0999 V2000
   18.8680   -5.0260   -7.1150 Au  0  1  0  0  0 15  0  0  0  0  0  0
M  CHG  1   1   3
M  END
>  <InstanceId>
1RM7_AU3_?_321

>  <ChemCompId>
AU3

>  <PdbId>
1RM7

>  <ChainId>
?

>  <ResidueNumber>
321

>  <InsertionCode>


>  <Model>
1

>  <AltIds>


>  <MissingHeavyAtoms>
0

>  <ObservedFormula>
Au

>  <Name>
GOLD 3+ ION

>  <SystematicName>
gold(+3) cation

>  <Synonyms>


>  <Type>
NON-POLYMER

>  <Formula>
Au

>  <MolecularWeight>
196.967

>  <ModifiedDate>
2011-06-04

>  <Parent>


>  <OneLetterCode>


>  <SubcomponentList>


>  <AmbiguousFlag>
N

>  <InChI>
InChI=1S/Au/q+3

>  <InChIKey>
CBMIPXHVOVTTTL-UHFFFAOYSA-N

>  <SMILES>
[Au+3]

$$$$
1RM7_AU3_?_322
 OpenBabel10161615053D
Coordinates from PDB:1RM7:?:322 Model:1 without hydrogens
  1  0  0  0  0  0  0  0  0  0999 V2000
   17.3260   -1.6960   -7.2030 Au  0  1  0  0  0 15  0  0  0  0  0  0
M  CHG  1   1   3
M  END
>  <InstanceId>
1RM7_AU3_?_322

>  <ChemCompId>
AU3

>  <PdbId>
1RM7

>  <ChainId>
?

>  <ResidueNumber>
322

>  <InsertionCode>


>  <Model>
1

>  <AltIds>


>  <MissingHeavyAtoms>
0

>  <ObservedFormula>
Au

>  <Name>
GOLD 3+ ION

>  <SystematicName>
gold(+3) cation

>  <Synonyms>


>  <Type>
NON-POLYMER

>  <Formula>
Au

>  <MolecularWeight>
196.967

>  <ModifiedDate>
2011-06-04

>  <Parent>


>  <OneLetterCode>


>  <SubcomponentList>


>  <AmbiguousFlag>
N

>  <InChI>
InChI=1S/Au/q+3

>  <InChIKey>
CBMIPXHVOVTTTL-UHFFFAOYSA-N

>  <SMILES>
[Au+3]

$$$$
2B8J_AU3_A_321
 OpenBabel10161615053D
Coordinates from PDB:2B8J:A:321 Model:1 without hydrogens
  1  0  0  0  0  0  0  0  0  0999 V2000
   20.6660   -5.5140   -8.7150 Au  0  1  0  0  0 15  0  0  0  0  0  0
M  CHG  1   1   3
M  END
>  <InstanceId>
2B8J_AU3_A_321

>  <ChemCompId>
AU3

>  <PdbId>
2B8J

>  <ChainId>
A

>  <ResidueNumber>
321

>  <InsertionCode>


>  <Model>
1

>  <AltIds>


>  <MissingHeavyAtoms>
0

>  <ObservedFormula>
Au

>  <Name>
GOLD 3+ ION

>  <SystematicName>
gold(+3) cation

>  <Synonyms>


>  <Type>
NON-POLYMER

>  <Formula>
Au

>  <MolecularWeight>
196.967

>  <ModifiedDate>
2011-06-04

>  <Parent>


>  <OneLetterCode>


>  <SubcomponentList>


>  <AmbiguousFlag>
N

>  <InChI>
InChI=1S/Au/q+3

>  <InChIKey>
CBMIPXHVOVTTTL-UHFFFAOYSA-N

>  <SMILES>
[Au+3]

$$$$
2OIJ_AU3_A_102
 OpenBabel10161615053D
Coordinates from PDB:2OIJ:A:102 Model:1 without hydrogens
  1  0  0  0  0  0  0  0  0  0999 V2000
  -11.3070   59.3300  -69.8720 Au  0  1  0  0  0 15  0  0  0  0  0  0
M  CHG  1   1   3
M  END
>  <InstanceId>
2OIJ_AU3_A_102

>  <ChemCompId>
AU3

>  <PdbId>
2OIJ

>  <ChainId>
A

>  <ResidueNumber>
102

>  <InsertionCode>


>  <Model>
1

>  <AltIds>


>  <MissingHeavyAtoms>
0

>  <ObservedFormula>
Au

>  <Name>
GOLD 3+ ION

>  <SystematicName>
gold(+3) cation

>  <Synonyms>


>  <Type>
NON-POLYMER

>  <Formula>
Au

>  <MolecularWeight>
196.967

>  <ModifiedDate>
2011-06-04

>  <Parent>


>  <OneLetterCode>


>  <SubcomponentList>


>  <AmbiguousFlag>
N

>  <InChI>
InChI=1S/Au/q+3

>  <InChIKey>
CBMIPXHVOVTTTL-UHFFFAOYSA-N

>  <SMILES>
[Au+3]

$$$$
2OIJ_AU3_B_101
 OpenBabel10161615053D
Coordinates from PDB:2OIJ:B:101 Model:1 without hydrogens
  1  0  0  0  0  0  0  0  0  0999 V2000
   -8.3600   57.2200  -44.9560 Au  0  1  0  0  0 15  0  0  0  0  0  0
M  CHG  1   1   3
M  END
>  <InstanceId>
2OIJ_AU3_B_101

>  <ChemCompId>
AU3

>  <PdbId>
2OIJ

>  <ChainId>
B

>  <ResidueNumber>
101

>  <InsertionCode>


>  <Model>
1

>  <AltIds>


>  <MissingHeavyAtoms>
0

>  <ObservedFormula>
Au

>  <Name>
GOLD 3+ ION

>  <SystematicName>
gold(+3) cation

>  <Synonyms>


>  <Type>
NON-POLYMER

>  <Formula>
Au

>  <MolecularWeight>
196.967

>  <ModifiedDate>
2011-06-04

>  <Parent>


>  <OneLetterCode>


>  <SubcomponentList>


>  <AmbiguousFlag>
N

>  <InChI>
InChI=1S/Au/q+3

>  <InChIKey>
CBMIPXHVOVTTTL-UHFFFAOYSA-N

>  <SMILES>
[Au+3]

$$$$
3H7G_AU3_A_201
 OpenBabel10161615053D
Coordinates from PDB:3H7G:A:201 Model:1 without hydrogens
  1  0  0  0  0  0  0  0  0  0999 V2000
   18.6680   -4.4340   37.9820 Au  0  1  0  0  0 15  0  0  0  0  0  0
M  CHG  1   1   3
M  END
>  <InstanceId>
3H7G_AU3_A_201

>  <ChemCompId>
AU3

>  <PdbId>
3H7G

>  <ChainId>
A

>  <ResidueNumber>
201

>  <InsertionCode>


>  <Model>
1

>  <AltIds>


>  <MissingHeavyAtoms>
0

>  <ObservedFormula>
Au

>  <Name>
GOLD 3+ ION

>  <SystematicName>
gold(+3) cation

>  <Synonyms>


>  <Type>
NON-POLYMER

>  <Formula>
Au

>  <MolecularWeight>
196.967

>  <ModifiedDate>
2011-06-04

>  <Parent>


>  <OneLetterCode>


>  <SubcomponentList>


>  <AmbiguousFlag>
N

>  <InChI>
InChI=1S/Au/q+3

>  <InChIKey>
CBMIPXHVOVTTTL-UHFFFAOYSA-N

>  <SMILES>
[Au+3]

$$$$
3H7G_AU3_A_202
 OpenBabel10161615053D
Coordinates from PDB:3H7G:A:202 Model:1 without hydrogens
  1  0  0  0  0  0  0  0  0  0999 V2000
   21.9510   -4.3290   39.2420 Au  0  1  0  0  0 15  0  0  0  0  0  0
M  CHG  1   1   3
M  END
>  <InstanceId>
3H7G_AU3_A_202

>  <ChemCompId>
AU3

>  <PdbId>
3H7G

>  <ChainId>
A

>  <ResidueNumber>
202

>  <InsertionCode>


>  <Model>
1

>  <AltIds>


>  <MissingHeavyAtoms>
0

>  <ObservedFormula>
Au

>  <Name>
GOLD 3+ ION

>  <SystematicName>
gold(+3) cation

>  <Synonyms>


>  <Type>
NON-POLYMER

>  <Formula>
Au

>  <MolecularWeight>
196.967

>  <ModifiedDate>
2011-06-04

>  <Parent>


>  <OneLetterCode>


>  <SubcomponentList>


>  <AmbiguousFlag>
N

>  <InChI>
InChI=1S/Au/q+3

>  <InChIKey>
CBMIPXHVOVTTTL-UHFFFAOYSA-N

>  <SMILES>
[Au+3]

$$$$
3H7G_AU3_A_203
 OpenBabel10161615053D
Coordinates from PDB:3H7G:A:203 Model:1 without hydrogens
  1  0  0  0  0  0  0  0  0  0999 V2000
   34.9330   27.5960   34.5820 Au  0  1  0  0  0 15  0  0  0  0  0  0
M  CHG  1   1   3
M  END
>  <InstanceId>
3H7G_AU3_A_203

>  <ChemCompId>
AU3

>  <PdbId>
3H7G

>  <ChainId>
A

>  <ResidueNumber>
203

>  <InsertionCode>


>  <Model>
1

>  <AltIds>


>  <MissingHeavyAtoms>
0

>  <ObservedFormula>
Au

>  <Name>
GOLD 3+ ION

>  <SystematicName>
gold(+3) cation

>  <Synonyms>


>  <Type>
NON-POLYMER

>  <Formula>
Au

>  <MolecularWeight>
196.967

>  <ModifiedDate>
2011-06-04

>  <Parent>


>  <OneLetterCode>


>  <SubcomponentList>


>  <AmbiguousFlag>
N

>  <InChI>
InChI=1S/Au/q+3

>  <InChIKey>
CBMIPXHVOVTTTL-UHFFFAOYSA-N

>  <SMILES>
[Au+3]

$$$$
3H7G_AU3_A_204
 OpenBabel10161615053D
Coordinates from PDB:3H7G:A:204 Model:1 without hydrogens
  1  0  0  0  0  0  0  0  0  0999 V2000
   36.8860   29.4760   32.0730 Au  0  1  0  0  0 15  0  0  0  0  0  0
M  CHG  1   1   3
M  END
>  <InstanceId>
3H7G_AU3_A_204

>  <ChemCompId>
AU3

>  <PdbId>
3H7G

>  <ChainId>
A

>  <ResidueNumber>
204

>  <InsertionCode>


>  <Model>
1

>  <AltIds>


>  <MissingHeavyAtoms>
0

>  <ObservedFormula>
Au

>  <Name>
GOLD 3+ ION

>  <SystematicName>
gold(+3) cation

>  <Synonyms>


>  <Type>
NON-POLYMER

>  <Formula>
Au

>  <MolecularWeight>
196.967

>  <ModifiedDate>
2011-06-04

>  <Parent>


>  <OneLetterCode>


>  <SubcomponentList>


>  <AmbiguousFlag>
N

>  <InChI>
InChI=1S/Au/q+3

>  <InChIKey>
CBMIPXHVOVTTTL-UHFFFAOYSA-N

>  <SMILES>
[Au+3]

$$$$
3H7G_AU3_A_205
 OpenBabel10161615053D
Coordinates from PDB:3H7G:A:205 Model:1 without hydrogens
  1  0  0  0  0  0  0  0  0  0999 V2000
   16.4610    6.3590   44.5010 Au  0  1  0  0  0 15  0  0  0  0  0  0
M  CHG  1   1   3
M  END
>  <InstanceId>
3H7G_AU3_A_205

>  <ChemCompId>
AU3

>  <PdbId>
3H7G

>  <ChainId>
A

>  <ResidueNumber>
205

>  <InsertionCode>


>  <Model>
1

>  <AltIds>


>  <MissingHeavyAtoms>
0

>  <ObservedFormula>
Au

>  <Name>
GOLD 3+ ION

>  <SystematicName>
gold(+3) cation

>  <Synonyms>


>  <Type>
NON-POLYMER

>  <Formula>
Au

>  <MolecularWeight>
196.967

>  <ModifiedDate>
2011-06-04

>  <Parent>


>  <OneLetterCode>


>  <SubcomponentList>


>  <AmbiguousFlag>
N

>  <InChI>
InChI=1S/Au/q+3

>  <InChIKey>
CBMIPXHVOVTTTL-UHFFFAOYSA-N

>  <SMILES>
[Au+3]

$$$$
3H7G_AU3_A_206
 OpenBabel10161615053D
Coordinates from PDB:3H7G:A:206 Model:1 without hydrogens
  1  0  0  0  0  0  0  0  0  0999 V2000
   18.6800   -6.8000   39.3040 Au  0  1  0  0  0 15  0  0  0  0  0  0
M  CHG  1   1   3
M  END
>  <InstanceId>
3H7G_AU3_A_206

>  <ChemCompId>
AU3

>  <PdbId>
3H7G

>  <ChainId>
A

>  <ResidueNumber>
206

>  <InsertionCode>


>  <Model>
1

>  <AltIds>


>  <MissingHeavyAtoms>
0

>  <ObservedFormula>
Au

>  <Name>
GOLD 3+ ION

>  <SystematicName>
gold(+3) cation

>  <Synonyms>


>  <Type>
NON-POLYMER

>  <Formula>
Au

>  <MolecularWeight>
196.967

>  <ModifiedDate>
2011-06-04

>  <Parent>


>  <OneLetterCode>


>  <SubcomponentList>


>  <AmbiguousFlag>
N

>  <InChI>
InChI=1S/Au/q+3

>  <InChIKey>
CBMIPXHVOVTTTL-UHFFFAOYSA-N

>  <SMILES>
[Au+3]

$$$$
3P4Z_AU3_A_305
 OpenBabel10161615053D
Coordinates from PDB:3P4Z:A:305 Model:1 without hydrogens
  1  0  0  0  0  0  0  0  0  0999 V2000
   -8.2530  -31.4570    1.6220 Au  0  1  0  0  0 15  0  0  0  0  0  0
M  CHG  1   1   3
M  END
>  <InstanceId>
3P4Z_AU3_A_305

>  <ChemCompId>
AU3

>  <PdbId>
3P4Z

>  <ChainId>
A

>  <ResidueNumber>
305

>  <InsertionCode>


>  <Model>
1

>  <AltIds>


>  <MissingHeavyAtoms>
0

>  <ObservedFormula>
Au

>  <Name>
GOLD 3+ ION

>  <SystematicName>
gold(+3) cation

>  <Synonyms>


>  <Type>
NON-POLYMER

>  <Formula>
Au

>  <MolecularWeight>
196.967

>  <ModifiedDate>
2011-06-04

>  <Parent>


>  <OneLetterCode>


>  <SubcomponentList>


>  <AmbiguousFlag>
N

>  <InChI>
InChI=1S/Au/q+3

>  <InChIKey>
CBMIPXHVOVTTTL-UHFFFAOYSA-N

>  <SMILES>
[Au+3]

$$$$
3P64_AU3_A_301
 OpenBabel10161615053D
Coordinates from PDB:3P64:A:301 Model:1 without hydrogens
  1  0  0  0  0  0  0  0  0  0999 V2000
   11.7710  -11.6440   -4.6960 Au  0  1  0  0  0 15  0  0  0  0  0  0
M  CHG  1   1   3
M  END
>  <InstanceId>
3P64_AU3_A_301

>  <ChemCompId>
AU3

>  <PdbId>
3P64

>  <ChainId>
A

>  <ResidueNumber>
301

>  <InsertionCode>


>  <Model>
1

>  <AltIds>


>  <MissingHeavyAtoms>
0

>  <ObservedFormula>
Au

>  <Name>
GOLD 3+ ION

>  <SystematicName>
gold(+3) cation

>  <Synonyms>


>  <Type>
NON-POLYMER

>  <Formula>
Au

>  <MolecularWeight>
196.967

>  <ModifiedDate>
2011-06-04

>  <Parent>


>  <OneLetterCode>


>  <SubcomponentList>


>  <AmbiguousFlag>
N

>  <InChI>
InChI=1S/Au/q+3

>  <InChIKey>
CBMIPXHVOVTTTL-UHFFFAOYSA-N

>  <SMILES>
[Au+3]

$$$$
3P64_AU3_A_302
 OpenBabel10161615053D
Coordinates from PDB:3P64:A:302 Model:1 without hydrogens
  1  0  0  0  0  0  0  0  0  0999 V2000
   -8.2860  -31.4520    1.4850 Au  0  1  0  0  0 15  0  0  0  0  0  0
M  CHG  1   1   3
M  END
>  <InstanceId>
3P64_AU3_A_302

>  <ChemCompId>
AU3

>  <PdbId>
3P64

>  <ChainId>
A

>  <ResidueNumber>
302

>  <InsertionCode>


>  <Model>
1

>  <AltIds>


>  <MissingHeavyAtoms>
0

>  <ObservedFormula>
Au

>  <Name>
GOLD 3+ ION

>  <SystematicName>
gold(+3) cation

>  <Synonyms>


>  <Type>
NON-POLYMER

>  <Formula>
Au

>  <MolecularWeight>
196.967

>  <ModifiedDate>
2011-06-04

>  <Parent>


>  <OneLetterCode>


>  <SubcomponentList>


>  <AmbiguousFlag>
N

>  <InChI>
InChI=1S/Au/q+3

>  <InChIKey>
CBMIPXHVOVTTTL-UHFFFAOYSA-N

>  <SMILES>
[Au+3]

$$$$
3P64_AU3_A_313
 OpenBabel10161615053D
Coordinates from PDB:3P64:A:313 Model:1 without hydrogens
  1  0  0  0  0  0  0  0  0  0999 V2000
  -11.2020  -29.1530   15.8420 Au  0  1  0  0  0 15  0  0  0  0  0  0
M  CHG  1   1   3
M  END
>  <InstanceId>
3P64_AU3_A_313

>  <ChemCompId>
AU3

>  <PdbId>
3P64

>  <ChainId>
A

>  <ResidueNumber>
313

>  <InsertionCode>


>  <Model>
1

>  <AltIds>


>  <MissingHeavyAtoms>
0

>  <ObservedFormula>
Au

>  <Name>
GOLD 3+ ION

>  <SystematicName>
gold(+3) cation

>  <Synonyms>


>  <Type>
NON-POLYMER

>  <Formula>
Au

>  <MolecularWeight>
196.967

>  <ModifiedDate>
2011-06-04

>  <Parent>


>  <OneLetterCode>


>  <SubcomponentList>


>  <AmbiguousFlag>
N

>  <InChI>
InChI=1S/Au/q+3

>  <InChIKey>
CBMIPXHVOVTTTL-UHFFFAOYSA-N

>  <SMILES>
[Au+3]

$$$$
3P65_AU3_A_301
 OpenBabel10161615053D
Coordinates from PDB:3P65:A:301 Model:1 without hydrogens
  1  0  0  0  0  0  0  0  0  0999 V2000
   -8.3250  -31.4900    1.6970 Au  0  1  0  0  0 15  0  0  0  0  0  0
M  CHG  1   1   3
M  END
>  <InstanceId>
3P65_AU3_A_301

>  <ChemCompId>
AU3

>  <PdbId>
3P65

>  <ChainId>
A

>  <ResidueNumber>
301

>  <InsertionCode>


>  <Model>
1

>  <AltIds>


>  <MissingHeavyAtoms>
0

>  <ObservedFormula>
Au

>  <Name>
GOLD 3+ ION

>  <SystematicName>
gold(+3) cation

>  <Synonyms>


>  <Type>
NON-POLYMER

>  <Formula>
Au

>  <MolecularWeight>
196.967

>  <ModifiedDate>
2011-06-04

>  <Parent>


>  <OneLetterCode>


>  <SubcomponentList>


>  <AmbiguousFlag>
N

>  <InChI>
InChI=1S/Au/q+3

>  <InChIKey>
CBMIPXHVOVTTTL-UHFFFAOYSA-N

>  <SMILES>
[Au+3]

$$$$
3P65_AU3_A_302
 OpenBabel10161615053D
Coordinates from PDB:3P65:A:302 Model:1 without hydrogens
  1  0  0  0  0  0  0  0  0  0999 V2000
   11.7420  -11.6920   -4.7060 Au  0  1  0  0  0 15  0  0  0  0  0  0
M  CHG  1   1   3
M  END
>  <InstanceId>
3P65_AU3_A_302

>  <ChemCompId>
AU3

>  <PdbId>
3P65

>  <ChainId>
A

>  <ResidueNumber>
302

>  <InsertionCode>


>  <Model>
1

>  <AltIds>


>  <MissingHeavyAtoms>
0

>  <ObservedFormula>
Au

>  <Name>
GOLD 3+ ION

>  <SystematicName>
gold(+3) cation

>  <Synonyms>


>  <Type>
NON-POLYMER

>  <Formula>
Au

>  <MolecularWeight>
196.967

>  <ModifiedDate>
2011-06-04

>  <Parent>


>  <OneLetterCode>


>  <SubcomponentList>


>  <AmbiguousFlag>
N

>  <InChI>
InChI=1S/Au/q+3

>  <InChIKey>
CBMIPXHVOVTTTL-UHFFFAOYSA-N

>  <SMILES>
[Au+3]

$$$$
3P65_AU3_A_303
 OpenBabel10161615053D
Coordinates from PDB:3P65:A:303 Model:1 without hydrogens
  1  0  0  0  0  0  0  0  0  0999 V2000
  -11.2170  -29.1890   15.8940 Au  0  1  0  0  0 15  0  0  0  0  0  0
M  CHG  1   1   3
M  END
>  <InstanceId>
3P65_AU3_A_303

>  <ChemCompId>
AU3

>  <PdbId>
3P65

>  <ChainId>
A

>  <ResidueNumber>
303

>  <InsertionCode>


>  <Model>
1

>  <AltIds>


>  <MissingHeavyAtoms>
0

>  <ObservedFormula>
Au

>  <Name>
GOLD 3+ ION

>  <SystematicName>
gold(+3) cation

>  <Synonyms>


>  <Type>
NON-POLYMER

>  <Formula>
Au

>  <MolecularWeight>
196.967

>  <ModifiedDate>
2011-06-04

>  <Parent>


>  <OneLetterCode>


>  <SubcomponentList>


>  <AmbiguousFlag>
N

>  <InChI>
InChI=1S/Au/q+3

>  <InChIKey>
CBMIPXHVOVTTTL-UHFFFAOYSA-N

>  <SMILES>
[Au+3]

$$$$
3P65_AU3_A_310
 OpenBabel10161615053D
Coordinates from PDB:3P65:A:310 Model:1 without hydrogens
  1  0  0  0  0  0  0  0  0  0999 V2000
    8.0380  -14.1520   -3.4340 Au  0  1  0  0  0 15  0  0  0  0  0  0
M  CHG  1   1   3
M  END
>  <InstanceId>
3P65_AU3_A_310

>  <ChemCompId>
AU3

>  <PdbId>
3P65

>  <ChainId>
A

>  <ResidueNumber>
310

>  <InsertionCode>


>  <Model>
1

>  <AltIds>


>  <MissingHeavyAtoms>
0

>  <ObservedFormula>
Au

>  <Name>
GOLD 3+ ION

>  <SystematicName>
gold(+3) cation

>  <Synonyms>


>  <Type>
NON-POLYMER

>  <Formula>
Au

>  <MolecularWeight>
196.967

>  <ModifiedDate>
2011-06-04

>  <Parent>


>  <OneLetterCode>


>  <SubcomponentList>


>  <AmbiguousFlag>
N

>  <InChI>
InChI=1S/Au/q+3

>  <InChIKey>
CBMIPXHVOVTTTL-UHFFFAOYSA-N

>  <SMILES>
[Au+3]

$$$$
3P66_AU3_A_301
 OpenBabel10161615053D
Coordinates from PDB:3P66:A:301 Model:1 without hydrogens
  1  0  0  0  0  0  0  0  0  0999 V2000
   11.5960  -11.6780   -4.7290 Au  0  1  0  0  0 15  0  0  0  0  0  0
M  CHG  1   1   3
M  END
>  <InstanceId>
3P66_AU3_A_301

>  <ChemCompId>
AU3

>  <PdbId>
3P66

>  <ChainId>
A

>  <ResidueNumber>
301

>  <InsertionCode>


>  <Model>
1

>  <AltIds>


>  <MissingHeavyAtoms>
0

>  <ObservedFormula>
Au

>  <Name>
GOLD 3+ ION

>  <SystematicName>
gold(+3) cation

>  <Synonyms>


>  <Type>
NON-POLYMER

>  <Formula>
Au

>  <MolecularWeight>
196.967

>  <ModifiedDate>
2011-06-04

>  <Parent>


>  <OneLetterCode>


>  <SubcomponentList>


>  <AmbiguousFlag>
N

>  <InChI>
InChI=1S/Au/q+3

>  <InChIKey>
CBMIPXHVOVTTTL-UHFFFAOYSA-N

>  <SMILES>
[Au+3]

$$$$
3P66_AU3_A_302
 OpenBabel10161615053D
Coordinates from PDB:3P66:A:302 Model:1 without hydrogens
  1  0  0  0  0  0  0  0  0  0999 V2000
   -8.3190  -31.4870    1.5920 Au  0  1  0  0  0 15  0  0  0  0  0  0
M  CHG  1   1   3
M  END
>  <InstanceId>
3P66_AU3_A_302

>  <ChemCompId>
AU3

>  <PdbId>
3P66

>  <ChainId>
A

>  <ResidueNumber>
302

>  <InsertionCode>


>  <Model>
1

>  <AltIds>


>  <MissingHeavyAtoms>
0

>  <ObservedFormula>
Au

>  <Name>
GOLD 3+ ION

>  <SystematicName>
gold(+3) cation

>  <Synonyms>


>  <Type>
NON-POLYMER

>  <Formula>
Au

>  <MolecularWeight>
196.967

>  <ModifiedDate>
2011-06-04

>  <Parent>


>  <OneLetterCode>


>  <SubcomponentList>


>  <AmbiguousFlag>
N

>  <InChI>
InChI=1S/Au/q+3

>  <InChIKey>
CBMIPXHVOVTTTL-UHFFFAOYSA-N

>  <SMILES>
[Au+3]

$$$$
3P66_AU3_A_303
 OpenBabel10161615053D
Coordinates from PDB:3P66:A:303 Model:1 without hydrogens
  1  0  0  0  0  0  0  0  0  0999 V2000
  -11.2490  -29.1000   15.9500 Au  0  1  0  0  0 15  0  0  0  0  0  0
M  CHG  1   1   3
M  END
>  <InstanceId>
3P66_AU3_A_303

>  <ChemCompId>
AU3

>  <PdbId>
3P66

>  <ChainId>
A

>  <ResidueNumber>
303

>  <InsertionCode>


>  <Model>
1

>  <AltIds>


>  <MissingHeavyAtoms>
0

>  <ObservedFormula>
Au

>  <Name>
GOLD 3+ ION

>  <SystematicName>
gold(+3) cation

>  <Synonyms>


>  <Type>
NON-POLYMER

>  <Formula>
Au

>  <MolecularWeight>
196.967

>  <ModifiedDate>
2011-06-04

>  <Parent>


>  <OneLetterCode>


>  <SubcomponentList>


>  <AmbiguousFlag>
N

>  <InChI>
InChI=1S/Au/q+3

>  <InChIKey>
CBMIPXHVOVTTTL-UHFFFAOYSA-N

>  <SMILES>
[Au+3]

$$$$
3P66_AU3_A_304
 OpenBabel10161615053D
Coordinates from PDB:3P66:A:304 Model:1 without hydrogens
  1  0  0  0  0  0  0  0  0  0999 V2000
   10.5560   -5.5830   -3.1270 Au  0  1  0  0  0 15  0  0  0  0  0  0
M  CHG  1   1   3
M  END
>  <InstanceId>
3P66_AU3_A_304

>  <ChemCompId>
AU3

>  <PdbId>
3P66

>  <ChainId>
A

>  <ResidueNumber>
304

>  <InsertionCode>


>  <Model>
1

>  <AltIds>


>  <MissingHeavyAtoms>
0

>  <ObservedFormula>
Au

>  <Name>
GOLD 3+ ION

>  <SystematicName>
gold(+3) cation

>  <Synonyms>


>  <Type>
NON-POLYMER

>  <Formula>
Au

>  <MolecularWeight>
196.967

>  <ModifiedDate>
2011-06-04

>  <Parent>


>  <OneLetterCode>


>  <SubcomponentList>


>  <AmbiguousFlag>
N

>  <InChI>
InChI=1S/Au/q+3

>  <InChIKey>
CBMIPXHVOVTTTL-UHFFFAOYSA-N

>  <SMILES>
[Au+3]

$$$$
3P66_AU3_A_305
 OpenBabel10161615053D
Coordinates from PDB:3P66:A:305 Model:1 without hydrogens
  1  0  0  0  0  0  0  0  0  0999 V2000
   13.8870  -14.6580    1.7690 Au  0  1  0  0  0 15  0  0  0  0  0  0
M  CHG  1   1   3
M  END
>  <InstanceId>
3P66_AU3_A_305

>  <ChemCompId>
AU3

>  <PdbId>
3P66

>  <ChainId>
A

>  <ResidueNumber>
305

>  <InsertionCode>


>  <Model>
1

>  <AltIds>


>  <MissingHeavyAtoms>
0

>  <ObservedFormula>
Au

>  <Name>
GOLD 3+ ION

>  <SystematicName>
gold(+3) cation

>  <Synonyms>


>  <Type>
NON-POLYMER

>  <Formula>
Au

>  <MolecularWeight>
196.967

>  <ModifiedDate>
2011-06-04

>  <Parent>


>  <OneLetterCode>


>  <SubcomponentList>


>  <AmbiguousFlag>
N

>  <InChI>
InChI=1S/Au/q+3

>  <InChIKey>
CBMIPXHVOVTTTL-UHFFFAOYSA-N

>  <SMILES>
[Au+3]

$$$$
3P66_AU3_A_306
 OpenBabel10161615053D
Coordinates from PDB:3P66:A:306 Model:1 without hydrogens
  1  0  0  0  0  0  0  0  0  0999 V2000
    5.2890   -5.9200   -2.1090 Au  0  1  0  0  0 15  0  0  0  0  0  0
M  CHG  1   1   3
M  END
>  <InstanceId>
3P66_AU3_A_306

>  <ChemCompId>
AU3

>  <PdbId>
3P66

>  <ChainId>
A

>  <ResidueNumber>
306

>  <InsertionCode>


>  <Model>
1

>  <AltIds>


>  <MissingHeavyAtoms>
0

>  <ObservedFormula>
Au

>  <Name>
GOLD 3+ ION

>  <SystematicName>
gold(+3) cation

>  <Synonyms>


>  <Type>
NON-POLYMER

>  <Formula>
Au

>  <MolecularWeight>
196.967

>  <ModifiedDate>
2011-06-04

>  <Parent>


>  <OneLetterCode>


>  <SubcomponentList>


>  <AmbiguousFlag>
N

>  <InChI>
InChI=1S/Au/q+3

>  <InChIKey>
CBMIPXHVOVTTTL-UHFFFAOYSA-N

>  <SMILES>
[Au+3]

$$$$
3P66_AU3_A_307
 OpenBabel10161615053D
Coordinates from PDB:3P66:A:307 Model:1 without hydrogens
  1  0  0  0  0  0  0  0  0  0999 V2000
    7.9910  -14.1050   -3.4420 Au  0  1  0  0  0 15  0  0  0  0  0  0
M  CHG  1   1   3
M  END
>  <InstanceId>
3P66_AU3_A_307

>  <ChemCompId>
AU3

>  <PdbId>
3P66

>  <ChainId>
A

>  <ResidueNumber>
307

>  <InsertionCode>


>  <Model>
1

>  <AltIds>


>  <MissingHeavyAtoms>
0

>  <ObservedFormula>
Au

>  <Name>
GOLD 3+ ION

>  <SystematicName>
gold(+3) cation

>  <Synonyms>


>  <Type>
NON-POLYMER

>  <Formula>
Au

>  <MolecularWeight>
196.967

>  <ModifiedDate>
2011-06-04

>  <Parent>


>  <OneLetterCode>


>  <SubcomponentList>


>  <AmbiguousFlag>
N

>  <InChI>
InChI=1S/Au/q+3

>  <InChIKey>
CBMIPXHVOVTTTL-UHFFFAOYSA-N

>  <SMILES>
[Au+3]

$$$$
3P66_AU3_A_308
 OpenBabel10161615053D
Coordinates from PDB:3P66:A:308 Model:1 without hydrogens
  1  0  0  0  0  0  0  0  0  0999 V2000
   11.4020  -13.3890   13.3860 Au  0  1  0  0  0 15  0  0  0  0  0  0
M  CHG  1   1   3
M  END
>  <InstanceId>
3P66_AU3_A_308

>  <ChemCompId>
AU3

>  <PdbId>
3P66

>  <ChainId>
A

>  <ResidueNumber>
308

>  <InsertionCode>


>  <Model>
1

>  <AltIds>


>  <MissingHeavyAtoms>
0

>  <ObservedFormula>
Au

>  <Name>
GOLD 3+ ION

>  <SystematicName>
gold(+3) cation

>  <Synonyms>


>  <Type>
NON-POLYMER

>  <Formula>
Au

>  <MolecularWeight>
196.967

>  <ModifiedDate>
2011-06-04

>  <Parent>


>  <OneLetterCode>


>  <SubcomponentList>


>  <AmbiguousFlag>
N

>  <InChI>
InChI=1S/Au/q+3

>  <InChIKey>
CBMIPXHVOVTTTL-UHFFFAOYSA-N

>  <SMILES>
[Au+3]

$$$$
3P68_AU3_A_1301
 OpenBabel10161615053D
Coordinates from PDB:3P68:A:1301 Model:1 without hydrogens
  1  0  0  0  0  0  0  0  0  0999 V2000
   -8.3030  -31.4650    1.5560 Au  0  1  0  0  0 15  0  0  0  0  0  0
M  CHG  1   1   3
M  END
>  <InstanceId>
3P68_AU3_A_1301

>  <ChemCompId>
AU3

>  <PdbId>
3P68

>  <ChainId>
A

>  <ResidueNumber>
1301

>  <InsertionCode>


>  <Model>
1

>  <AltIds>


>  <MissingHeavyAtoms>
0

>  <ObservedFormula>
Au

>  <Name>
GOLD 3+ ION

>  <SystematicName>
gold(+3) cation

>  <Synonyms>


>  <Type>
NON-POLYMER

>  <Formula>
Au

>  <MolecularWeight>
196.967

>  <ModifiedDate>
2011-06-04

>  <Parent>


>  <OneLetterCode>


>  <SubcomponentList>


>  <AmbiguousFlag>
N

>  <InChI>
InChI=1S/Au/q+3

>  <InChIKey>
CBMIPXHVOVTTTL-UHFFFAOYSA-N

>  <SMILES>
[Au+3]

$$$$
3P68_AU3_A_1302
 OpenBabel10161615053D
Coordinates from PDB:3P68:A:1302 Model:1 without hydrogens
  1  0  0  0  0  0  0  0  0  0999 V2000
   11.6160  -11.6280   -4.7860 Au  0  1  0  0  0 15  0  0  0  0  0  0
M  CHG  1   1   3
M  END
>  <InstanceId>
3P68_AU3_A_1302

>  <ChemCompId>
AU3

>  <PdbId>
3P68

>  <ChainId>
A

>  <ResidueNumber>
1302

>  <InsertionCode>


>  <Model>
1

>  <AltIds>


>  <MissingHeavyAtoms>
0

>  <ObservedFormula>
Au

>  <Name>
GOLD 3+ ION

>  <SystematicName>
gold(+3) cation

>  <Synonyms>


>  <Type>
NON-POLYMER

>  <Formula>
Au

>  <MolecularWeight>
196.967

>  <ModifiedDate>
2011-06-04

>  <Parent>


>  <OneLetterCode>


>  <SubcomponentList>


>  <AmbiguousFlag>
N

>  <InChI>
InChI=1S/Au/q+3

>  <InChIKey>
CBMIPXHVOVTTTL-UHFFFAOYSA-N

>  <SMILES>
[Au+3]

$$$$
3P68_AU3_A_1303
 OpenBabel10161615053D
Coordinates from PDB:3P68:A:1303 Model:1 without hydrogens
  1  0  0  0  0  0  0  0  0  0999 V2000
   10.3800   -5.5630   -3.0910 Au  0  1  0  0  0 15  0  0  0  0  0  0
M  CHG  1   1   3
M  END
>  <InstanceId>
3P68_AU3_A_1303

>  <ChemCompId>
AU3

>  <PdbId>
3P68

>  <ChainId>
A

>  <ResidueNumber>
1303

>  <InsertionCode>


>  <Model>
1

>  <AltIds>


>  <MissingHeavyAtoms>
0

>  <ObservedFormula>
Au

>  <Name>
GOLD 3+ ION

>  <SystematicName>
gold(+3) cation

>  <Synonyms>


>  <Type>
NON-POLYMER

>  <Formula>
Au

>  <MolecularWeight>
196.967

>  <ModifiedDate>
2011-06-04

>  <Parent>


>  <OneLetterCode>


>  <SubcomponentList>


>  <AmbiguousFlag>
N

>  <InChI>
InChI=1S/Au/q+3

>  <InChIKey>
CBMIPXHVOVTTTL-UHFFFAOYSA-N

>  <SMILES>
[Au+3]

$$$$
3P68_AU3_A_1304
 OpenBabel10161615053D
Coordinates from PDB:3P68:A:1304 Model:1 without hydrogens
  1  0  0  0  0  0  0  0  0  0999 V2000
  -11.3720  -29.0310   16.0320 Au  0  1  0  0  0 15  0  0  0  0  0  0
M  CHG  1   1   3
M  END
>  <InstanceId>
3P68_AU3_A_1304

>  <ChemCompId>
AU3

>  <PdbId>
3P68

>  <ChainId>
A

>  <ResidueNumber>
1304

>  <InsertionCode>


>  <Model>
1

>  <AltIds>


>  <MissingHeavyAtoms>
0

>  <ObservedFormula>
Au

>  <Name>
GOLD 3+ ION

>  <SystematicName>
gold(+3) cation

>  <Synonyms>


>  <Type>
NON-POLYMER

>  <Formula>
Au

>  <MolecularWeight>
196.967

>  <ModifiedDate>
2011-06-04

>  <Parent>


>  <OneLetterCode>


>  <SubcomponentList>


>  <AmbiguousFlag>
N

>  <InChI>
InChI=1S/Au/q+3

>  <InChIKey>
CBMIPXHVOVTTTL-UHFFFAOYSA-N

>  <SMILES>
[Au+3]

$$$$
3P68_AU3_A_1305
 OpenBabel10161615053D
Coordinates from PDB:3P68:A:1305 Model:1 without hydrogens
  1  0  0  0  0  0  0  0  0  0999 V2000
   13.6640  -14.7260    1.5470 Au  0  1  0  0  0 15  0  0  0  0  0  0
M  CHG  1   1   3
M  END
>  <InstanceId>
3P68_AU3_A_1305

>  <ChemCompId>
AU3

>  <PdbId>
3P68

>  <ChainId>
A

>  <ResidueNumber>
1305

>  <InsertionCode>


>  <Model>
1

>  <AltIds>


>  <MissingHeavyAtoms>
0

>  <ObservedFormula>
Au

>  <Name>
GOLD 3+ ION

>  <SystematicName>
gold(+3) cation

>  <Synonyms>


>  <Type>
NON-POLYMER

>  <Formula>
Au

>  <MolecularWeight>
196.967

>  <ModifiedDate>
2011-06-04

>  <Parent>


>  <OneLetterCode>


>  <SubcomponentList>


>  <AmbiguousFlag>
N

>  <InChI>
InChI=1S/Au/q+3

>  <InChIKey>
CBMIPXHVOVTTTL-UHFFFAOYSA-N

>  <SMILES>
[Au+3]

$$$$
3P68_AU3_A_1306
 OpenBabel10161615053D
Coordinates from PDB:3P68:A:1306 Model:1 without hydrogens
  1  0  0  0  0  0  0  0  0  0999 V2000
    5.4270   -5.8330   -2.0000 Au  0  1  0  0  0 15  0  0  0  0  0  0
M  CHG  1   1   3
M  END
>  <InstanceId>
3P68_AU3_A_1306

>  <ChemCompId>
AU3

>  <PdbId>
3P68

>  <ChainId>
A

>  <ResidueNumber>
1306

>  <InsertionCode>


>  <Model>
1

>  <AltIds>


>  <MissingHeavyAtoms>
0

>  <ObservedFormula>
Au

>  <Name>
GOLD 3+ ION

>  <SystematicName>
gold(+3) cation

>  <Synonyms>


>  <Type>
NON-POLYMER

>  <Formula>
Au

>  <MolecularWeight>
196.967

>  <ModifiedDate>
2011-06-04

>  <Parent>


>  <OneLetterCode>


>  <SubcomponentList>


>  <AmbiguousFlag>
N

>  <InChI>
InChI=1S/Au/q+3

>  <InChIKey>
CBMIPXHVOVTTTL-UHFFFAOYSA-N

>  <SMILES>
[Au+3]

$$$$
3P68_AU3_A_1307
 OpenBabel10161615053D
Coordinates from PDB:3P68:A:1307 Model:1 without hydrogens
  1  0  0  0  0  0  0  0  0  0999 V2000
    7.7480  -14.0320   -3.4410 Au  0  1  0  0  0 15  0  0  0  0  0  0
M  CHG  1   1   3
M  END
>  <InstanceId>
3P68_AU3_A_1307

>  <ChemCompId>
AU3

>  <PdbId>
3P68

>  <ChainId>
A

>  <ResidueNumber>
1307

>  <InsertionCode>


>  <Model>
1

>  <AltIds>


>  <MissingHeavyAtoms>
0

>  <ObservedFormula>
Au

>  <Name>
GOLD 3+ ION

>  <SystematicName>
gold(+3) cation

>  <Synonyms>


>  <Type>
NON-POLYMER

>  <Formula>
Au

>  <MolecularWeight>
196.967

>  <ModifiedDate>
2011-06-04

>  <Parent>


>  <OneLetterCode>


>  <SubcomponentList>


>  <AmbiguousFlag>
N

>  <InChI>
InChI=1S/Au/q+3

>  <InChIKey>
CBMIPXHVOVTTTL-UHFFFAOYSA-N

>  <SMILES>
[Au+3]

$$$$
